.model d1n4002 D( IS=14.11E-9 CJO=51.17E-12 RS=33.89E-3 EG=1.11 M=.2762 
+ N=1.984 BV=100.1 FC=.5 XTI=3 IKF=94.81 
+ TT=4.761E-6 VJ=.3905 IBV=10 )